Version 4
SHEET 1 948 680
WIRE 208 -16 -48 -16
WIRE 736 -16 208 -16
WIRE 208 0 208 -16
WIRE 736 0 736 -16
WIRE -48 64 -48 -16
WIRE 208 96 208 64
WIRE 736 96 736 64
WIRE 208 112 208 96
WIRE 736 112 736 96
WIRE -48 208 -48 144
WIRE 208 208 208 192
WIRE 208 208 -48 208
WIRE 736 208 736 192
WIRE 736 208 208 208
WIRE 208 240 208 208
WIRE 736 240 736 208
FLAG 208 96 out
FLAG 208 240 0
FLAG -48 -16 in
FLAG 736 96 out2
FLAG 736 240 0
SYMBOL res 192 96 R0
SYMATTR InstName R1
SYMATTR Value {R}
SYMBOL cap 192 0 R0
SYMATTR InstName C1
SYMATTR Value {C}
SYMBOL voltage -48 48 R0
WINDOW 123 24 124 Left 2
WINDOW 39 0 0 Left 0
SYMATTR Value2 AC 10
SYMATTR InstName V1
SYMATTR Value SINE(0 10 55k)
SYMBOL res 720 96 R0
SYMATTR InstName R2
SYMATTR Value {R}
SYMBOL cap 720 0 R0
SYMATTR InstName C2
SYMATTR Value {dC}
TEXT -80 216 Left 2 !;.ac dec 100u 1 100k
TEXT -82 264 Left 2 !.tran 0 54.545454u 18.181818u
TEXT -80 328 Left 2 !.param C=1p dC=C+(C/10) R=1/(55000*C)
