Version 4
SHEET 1 1120 680
WIRE 208 -16 -48 -16
WIRE 736 -16 416 -16
WIRE 208 0 208 -16
WIRE 736 0 736 -16
WIRE -48 64 -48 -16
WIRE 416 64 416 -16
WIRE 208 96 208 64
WIRE 736 96 736 64
WIRE 208 112 208 96
WIRE 736 112 736 96
WIRE -48 208 -48 144
WIRE 208 208 208 192
WIRE 208 208 -48 208
WIRE 208 240 208 208
WIRE 416 240 416 144
WIRE 736 240 736 192
WIRE 736 240 416 240
WIRE 736 288 736 240
FLAG 208 96 out
FLAG 208 240 0
FLAG -48 -16 in
FLAG 736 96 out2
FLAG 736 288 0
SYMBOL res 192 96 R0
SYMATTR InstName R1
SYMATTR Value {R}
SYMBOL cap 192 0 R0
SYMATTR InstName C1
SYMATTR Value {C2}
SYMBOL voltage -48 48 R0
WINDOW 39 0 0 Left 0
SYMATTR InstName V1
SYMATTR Value SINE(0 10 55k)
SYMBOL res 720 96 R0
SYMATTR InstName R2
SYMATTR Value {R}
SYMBOL cap 720 0 R0
SYMATTR InstName C2
SYMATTR Value {dC2}
SYMBOL voltage 416 48 R0
WINDOW 123 0 0 Left 0
WINDOW 39 0 0 Left 0
SYMATTR InstName V2
SYMATTR Value SINE(0 10 55k)
TEXT -80 216 Left 2 !;.ac dec 100u 1 100k
TEXT -80 264 Left 2 !.tran 0 54.545454u 18.181818u
TEXT -80 328 Left 2 !.param C=1p C2=2p dC=1p+0.01p dC2=2p+0.005p R=2893726.238034461 R2=1446863.1190172306
